15
#
Kr    31.7017    75.6252    79.3049
Kr    27.7661    34.0667    78.2039
Kr    64.2507    24.5193    60.8932
Kr    71.6958    93.6154    68.5385
Kr    2.4840    56.9274    68.1051
Kr    58.8138    67.4618    71.0381
Kr    36.2017    13.4647    58.0810
Kr    93.1797    31.6997    4.7013
Kr    61.3802    51.9058    66.4683
Kr    71.9755    38.1390    92.0454
Kr    59.6231    7.5198    85.8129
Kr    21.3723    72.7630    12.0305
Kr    15.2582    42.1201    1.4088
Kr    83.4497    91.0481    59.2499
Kr    73.2835    59.1567    53.1481
