31
#
Xe    26.8766    -0.2346    30.5681
Xe    39.1191    21.3295    3.0842
Xe    38.3534    20.9620    25.4078
Xe    12.6978    39.9290    20.1110
Xe    23.1070    7.9450    16.2571
Xe    30.2772    40.7145    19.3162
Xe    7.4025    7.4230    16.1280
Xe    22.2163    35.2661    23.9726
Xe    12.2767    4.8540    6.5128
Xe    44.4946    30.6418    11.0771
Xe    24.5921    33.4683    30.3093
Xe    5.3986    21.4736    11.0527
Xe    1.2306    30.8580    5.4535
Xe    40.1844    21.2613    8.0087
Xe    5.7665    21.5926    6.5902
Xe    11.2457    13.8375    31.0435
Xe    15.9494    43.0521    17.3873
Xe    22.4982    34.8404    13.5975
Xe    2.2009    11.1618    18.1032
Xe    29.0543    1.2101    18.0644
Xe    -0.8917    13.3304    20.3145
Xe    35.5823    35.9925    14.9574
Xe    10.1497    16.6542    22.3680
Xe    20.5522    8.4323    27.7173
Xe    27.1020    9.7302    1.6598
Xe    4.7621    21.9796    15.5127
Xe    15.6922    42.7568    28.5375
Xe    30.5943    3.1079    28.7860
Xe    44.9986    29.4522    19.8957
Xe    21.0447    35.2311    27.8544
Xe    19.7542    32.9719    1.1181
