132
#
Xe    10.8986    9.1883    8.2322
Xe    12.6930    5.9908    4.1769
Xe    10.5758    5.3008    11.3333
Xe    21.4016    9.1329    16.6039
Xe    25.0139    9.3081    13.0869
Xe    2.9882    8.3569    5.1312
Xe    4.5055    3.1716    28.0674
Xe    6.3496    6.4333    16.5184
Xe    6.8665    27.3180    21.8869
Xe    26.0805    24.2271    26.3412
Xe    17.6366    22.9206    9.5845
Xe    5.7074    22.5261    24.0882
Xe    3.5710    14.3590    7.8064
Xe    7.1669    23.2096    29.3353
Xe    14.1426    13.5468    25.9734
Xe    28.3005    5.9896    13.4180
Xe    10.2998    8.8444    18.2504
Xe    5.9768    6.4072    22.5762
Xe    8.4766    4.4312    6.4025
Xe    29.4611    25.8324    23.1795
Xe    10.8700    3.6266    1.4662
Xe    22.3627    28.5829    12.9783
Xe    14.7752    20.3313    14.7273
Xe    21.0470    7.3161    20.3197
Xe    1.1025    15.5860    11.0571
Xe    2.3144    12.5665    19.2380
Xe    28.6533    24.3866    5.2619
Xe    13.9592    2.5616    7.4089
Xe    23.8670    28.2756    8.2258
Xe    12.5371    27.1796    23.6702
Xe    13.6763    15.0541    0.8940
Xe    8.4234    6.2104    28.4020
Xe    14.5868    8.1932    27.2298
Xe    19.0005    27.7188    8.9905
Xe    0.7663    4.5776    7.1765
Xe    13.8080    7.5524    11.2583
Xe    8.3788    20.5320    21.0215
Xe    10.0550    22.9345    9.2491
Xe    25.9118    0.0916    3.5559
Xe    20.2391    12.2855    13.0762
Xe    3.0123    6.1198    1.8783
Xe    14.1247    26.9889    15.9605
Xe    29.5914    20.6594    9.4032
Xe    27.8060    2.8993    9.6317
Xe    20.0374    14.8745    0.2651
Xe    14.2689    12.1064    17.8244
Xe    0.2877    23.2445    26.5249
Xe    6.7754    2.2665    22.6783
Xe    5.0153    5.8349    7.5977
Xe    3.4703    8.7352    14.2861
Xe    18.5635    14.0642    22.7244
Xe    4.3455    12.4811    4.0716
Xe    13.3634    18.5564    28.7781
Xe    2.4398    25.9162    13.1510
Xe    21.5489    11.0244    9.4202
Xe    20.5434    11.5836    20.2159
Xe    5.1078    26.1235    4.7617
Xe    11.4627    23.1837    13.7726
Xe    8.7620    1.9653    26.2689
Xe    29.3519    18.0213    14.6611
Xe    15.7961    17.9312    24.3647
Xe    9.9902    8.8634    23.7542
Xe    6.0314    21.2999    6.5408
Xe    19.3978    9.6284    29.2403
Xe    6.6559    16.7627    20.5276
Xe    8.3677    11.1591    12.2042
Xe    25.3691    9.9612    18.9436
Xe    9.1678    27.8950    10.8900
Xe    7.3578    15.7178    6.8534
Xe    27.6578    10.4986    28.2057
Xe    13.4555    6.4577    18.8591
Xe    1.2937    2.0910    19.6600
Xe    29.6911    29.9851    14.3784
Xe    5.6754    16.9122    29.7689
Xe    10.7508    21.7033    24.3121
Xe    2.1042    27.7425    27.6831
Xe    28.2480    19.5060    3.5299
Xe    11.2514    11.9301    3.5116
Xe    26.8477    14.9194    16.6810
Xe    5.9566    10.7764    7.9754
Xe    6.0663    13.3844    14.5002
Xe    18.1577    4.5435    1.0584
Xe    1.2817    4.0865    25.0806
Xe    14.3246    22.8123    1.5876
Xe    18.5504    25.4064    29.0895
Xe    28.8835    29.8232    24.0562
Xe    29.6936    27.3123    17.8771
Xe    0.7145    8.5136    17.5057
Xe    11.0967    0.0603    5.3311
Xe    6.1305    17.8731    15.9710
Xe    24.8040    26.8801    23.0744
Xe    4.1523    18.9640    9.8358
Xe    13.1394    24.7563    28.0893
Xe    9.9771    27.5767    18.9335
Xe    9.1127    26.1706    26.4500
Xe    9.4591    16.5527    2.7506
Xe    15.0457    18.4760    20.1595
Xe    20.6996    19.4423    8.9750
Xe    8.6394    13.0132    28.3721
Xe    6.3554    15.0004    10.5617
Xe    13.5985    4.4729    28.1962
Xe    25.5762    27.1356    0.1099
Xe    25.7387    3.1836    28.8853
Xe    14.7900    29.4160    21.2840
Xe    10.9682    17.2170    20.7803
Xe    17.4478    5.3770    6.7954
Xe    20.0525    15.1450    9.9478
Xe    16.9661    2.0265    26.7690
Xe    14.9236    10.6468    1.0506
Xe    7.9066    2.4020    15.4910
Xe    26.7385    5.5851    24.2318
Xe    23.0981    14.5291    6.1188
Xe    12.1544    13.4238    10.8160
Xe    28.0060    13.9278    4.0635
Xe    6.8665    9.6275    20.3615
Xe    11.9976    29.7506    29.0844
Xe    24.6073    2.2651    23.7863
Xe    24.7099    16.0885    10.2546
Xe    14.7415    14.4709    5.0048
Xe    9.0068    22.1968    2.9563
Xe    1.6667    8.0991    22.3818
Xe    29.3740    5.7457    0.8800
Xe    10.4866    16.5796    27.8798
Xe    17.4732    18.5019    0.2665
Xe    28.7953    15.9364    21.9168
Xe    4.1442    20.6818    20.8891
Xe    11.8714    25.3705    2.4501
Xe    17.2383    21.9723    5.4945
Xe    12.0066    1.3611    11.0001
Xe    9.1033    18.8668    9.5075
Xe    22.0323    4.7870    12.0393
Xe    3.3258    19.0368    27.8562
